<?xml version="1.0" encoding="UTF-8"?>

<!-- generated on 2024-02-05 15:18:57 by Eclipse SUMO sumo Version 1.19.0
-->

<configuration >

    <input>
        <net-file value="3lanemixDemo.net.xml"/>
        <route-files value="0322.rou.xml"/>
    </input>

    <time>
        <begin value="0"/>
        <step-length value="1" />

    </time>

    <report>
        <verbose value="true"/>
        <no-step-log value="true"/>
    </report>

</configuration>
