<?xml version="1.0" encoding="UTF-8"?>

<!-- generated on 2024-03-22 14:49:22 by Eclipse SUMO netedit Version 1.19.0
<configuration xmlns:xsi="http://www.w3.org/2001/XMLSchema-instance" xsi:noNamespaceSchemaLocation="http://sumo.dlr.de/xsd/neteditConfiguration.xsd">

    <input>
        <sumo-net-file value="E:\ResearchCode\SUMOsimulation\3lanemix\0322\3lanemixDemo.net.xml"/>
    </input>

    <output>
        <output-file value="E:\ResearchCode\SUMOsimulation\3lanemix\0322\3lanemixDemo.net.xml"/>
    </output>

    <processing>
        <geometry.min-radius.fix.railways value="false"/>
        <geometry.max-grade.fix value="false"/>
        <offset.disable-normalization value="true"/>
        <lefthand value="0"/>
    </processing>

    <junctions>
        <no-turnarounds value="true"/>
        <junctions.corner-detail value="5"/>
        <junctions.limit-turn-speed value="5.50"/>
        <rectangular-lane-cut value="0"/>
    </junctions>

    <pedestrian>
        <walkingareas value="0"/>
    </pedestrian>

</configuration>
-->

<net version="1.16" junctionCornerDetail="5" limitTurnSpeed="5.50" xmlns:xsi="http://www.w3.org/2001/XMLSchema-instance" xsi:noNamespaceSchemaLocation="http://sumo.dlr.de/xsd/net_file.xsd">

    <location netOffset="0.00,0.00" convBoundary="-100.00,0.00,6000.00,0.00" origBoundary="-10000000000.00,-10000000000.00,10000000000.00,10000000000.00" projParameter="!"/>

    <edge id=":J0_0" function="internal">
        <lane id=":J0_0_0" index="0" speed="30.00" length="0.10" shape="0.00,-8.00 0.00,-8.00"/>
        <lane id=":J0_0_1" index="1" speed="30.00" length="0.10" shape="0.00,-4.80 0.00,-4.80"/>
        <lane id=":J0_0_2" index="2" speed="30.00" length="0.10" shape="0.00,-1.60 0.00,-1.60"/>
    </edge>
    <edge id=":J1_0" function="internal">
        <lane id=":J1_0_0" index="0" speed="30.00" length="0.10" shape="1000.00,-8.00 1000.00,-8.00"/>
        <lane id=":J1_0_1" index="1" speed="30.00" length="0.10" shape="1000.00,-4.80 1000.00,-4.80"/>
        <lane id=":J1_0_2" index="2" speed="30.00" length="0.10" shape="1000.00,-1.60 1000.00,-1.60"/>
    </edge>
    <edge id=":J3_0" function="internal">
        <lane id=":J3_0_0" index="0" speed="30.00" length="0.10" shape="5000.00,-8.00 5000.00,-8.00"/>
        <lane id=":J3_0_1" index="1" speed="30.00" length="0.10" shape="5000.00,-4.80 5000.00,-4.80"/>
        <lane id=":J3_0_2" index="2" speed="30.00" length="0.10" shape="5000.00,-1.60 5000.00,-1.60"/>
    </edge>

    <edge id="E0" from="J0" to="J1" priority="-1">
        <lane id="E0_0" index="0" speed="30.00" length="1000.00" shape="0.00,-8.00 1000.00,-8.00"/>
        <lane id="E0_1" index="1" speed="30.00" length="1000.00" shape="0.00,-4.80 1000.00,-4.80"/>
        <lane id="E0_2" index="2" speed="30.00" length="1000.00" shape="0.00,-1.60 1000.00,-1.60"/>
    </edge>
    <edge id="E1" from="J1" to="J3" priority="-1">
        <lane id="E1_0" index="0" speed="30.00" length="4000.00" shape="1000.00,-8.00 5000.00,-8.00"/>
        <lane id="E1_1" index="1" speed="30.00" length="4000.00" shape="1000.00,-4.80 5000.00,-4.80"/>
        <lane id="E1_2" index="2" speed="30.00" length="4000.00" shape="1000.00,-1.60 5000.00,-1.60"/>
    </edge>
    <edge id="E2" from="J3" to="J5" priority="-1">
        <lane id="E2_0" index="0" speed="30.00" length="1000.00" shape="5000.00,-8.00 6000.00,-8.00"/>
        <lane id="E2_1" index="1" speed="30.00" length="1000.00" shape="5000.00,-4.80 6000.00,-4.80"/>
        <lane id="E2_2" index="2" speed="30.00" length="1000.00" shape="5000.00,-1.60 6000.00,-1.60"/>
    </edge>
    <edge id="E3" from="J2" to="J0" priority="-1">
        <lane id="E3_0" index="0" speed="30.00" length="100.00" shape="-100.00,-8.00 0.00,-8.00"/>
        <lane id="E3_1" index="1" speed="30.00" length="100.00" shape="-100.00,-4.80 0.00,-4.80"/>
        <lane id="E3_2" index="2" speed="30.00" length="100.00" shape="-100.00,-1.60 0.00,-1.60"/>
    </edge>

    <junction id="J0" type="priority" x="0.00" y="0.00" incLanes="E3_0 E3_1 E3_2" intLanes=":J0_0_0 :J0_0_1 :J0_0_2" shape="0.00,0.00 0.00,-9.60 0.00,0.00">
        <request index="0" response="000" foes="000" cont="0"/>
        <request index="1" response="000" foes="000" cont="0"/>
        <request index="2" response="000" foes="000" cont="0"/>
    </junction>
    <junction id="J1" type="priority" x="1000.00" y="0.00" incLanes="E0_0 E0_1 E0_2" intLanes=":J1_0_0 :J1_0_1 :J1_0_2" shape="1000.00,0.00 1000.00,-9.60 1000.00,0.00">
        <request index="0" response="000" foes="000" cont="0"/>
        <request index="1" response="000" foes="000" cont="0"/>
        <request index="2" response="000" foes="000" cont="0"/>
    </junction>
    <junction id="J2" type="dead_end" x="-100.00" y="0.00" incLanes="" intLanes="" shape="-100.00,0.00 -100.00,-9.60"/>
    <junction id="J3" type="priority" x="5000.00" y="0.00" incLanes="E1_0 E1_1 E1_2" intLanes=":J3_0_0 :J3_0_1 :J3_0_2" shape="5000.00,0.00 5000.00,-9.60 5000.00,0.00">
        <request index="0" response="000" foes="000" cont="0"/>
        <request index="1" response="000" foes="000" cont="0"/>
        <request index="2" response="000" foes="000" cont="0"/>
    </junction>
    <junction id="J5" type="dead_end" x="6000.00" y="0.00" incLanes="E2_0 E2_1 E2_2" intLanes="" shape="6000.00,-9.60 6000.00,0.00"/>

    <connection from="E0" to="E1" fromLane="0" toLane="0" via=":J1_0_0" dir="s" state="M"/>
    <connection from="E0" to="E1" fromLane="1" toLane="1" via=":J1_0_1" dir="s" state="M"/>
    <connection from="E0" to="E1" fromLane="2" toLane="2" via=":J1_0_2" dir="s" state="M"/>
    <connection from="E1" to="E2" fromLane="0" toLane="0" via=":J3_0_0" dir="s" state="M"/>
    <connection from="E1" to="E2" fromLane="1" toLane="1" via=":J3_0_1" dir="s" state="M"/>
    <connection from="E1" to="E2" fromLane="2" toLane="2" via=":J3_0_2" dir="s" state="M"/>
    <connection from="E3" to="E0" fromLane="0" toLane="0" via=":J0_0_0" dir="s" state="M"/>
    <connection from="E3" to="E0" fromLane="1" toLane="1" via=":J0_0_1" dir="s" state="M"/>
    <connection from="E3" to="E0" fromLane="2" toLane="2" via=":J0_0_2" dir="s" state="M"/>

    <connection from=":J0_0" to="E0" fromLane="0" toLane="0" dir="s" state="M"/>
    <connection from=":J0_0" to="E0" fromLane="1" toLane="1" dir="s" state="M"/>
    <connection from=":J0_0" to="E0" fromLane="2" toLane="2" dir="s" state="M"/>
    <connection from=":J1_0" to="E1" fromLane="0" toLane="0" dir="s" state="M"/>
    <connection from=":J1_0" to="E1" fromLane="1" toLane="1" dir="s" state="M"/>
    <connection from=":J1_0" to="E1" fromLane="2" toLane="2" dir="s" state="M"/>
    <connection from=":J3_0" to="E2" fromLane="0" toLane="0" dir="s" state="M"/>
    <connection from=":J3_0" to="E2" fromLane="1" toLane="1" dir="s" state="M"/>
    <connection from=":J3_0" to="E2" fromLane="2" toLane="2" dir="s" state="M"/>

</net>
